# avogadro generated ORCA input file 
# Basic Mode
# 
! RHF SP def2-SVP 

* xyz 0 1
   C       -0.90833        2.95392       -1.88316
   C        0.17142        3.00797       -0.83413
   C        1.13651        1.77737        1.10722
   C        1.42223        3.03309        1.92739
   C        2.38660        1.10667        0.48387
   C        4.72576        0.43164        0.86338
   N        0.11461        1.97506        0.07647
   N        3.51317        1.08942        1.28022
   O        2.33888        0.51744       -0.59686
   O        0.97740        3.93013       -0.78722
   H       -0.31379        1.12256       -0.26182
   H        3.47317        1.45378        2.22236
   H        4.85781        0.50871       -0.21914
   H        4.66599       -0.62113        1.15198
   H        5.56823        0.90385        1.37482
   H        1.90877        2.77715        2.87520
   H        0.49640        3.56711        2.16972
   H        2.09262        3.72270        1.40381
   H       -1.34870        1.95635       -1.96269
   H       -0.48167        3.21913       -2.85432
   H       -1.69343        3.66791       -1.61891
   H        0.70485        1.02841        1.78362
*
