# avogadro generated ORCA input file 
# Basic Mode
# 
! RHF SP def2-SVP 

* xyz 0 1
   C       -1.05985        3.11466       -1.82690
   C        0.16770        3.00368       -0.96286
   C        1.15297        1.74552        0.96378
   C        1.35597        2.94563        1.88394
   C        2.59440        1.63069        0.41338
   C        3.93505        1.26295       -1.60438
   N        0.12301        1.96817       -0.05973
   N        2.66362        1.31960       -0.93185
   O        3.58542        1.65843        1.14009
   O        1.12298        3.75903       -1.08591
   H       -0.75434        1.48054        0.06851
   H        1.85186        1.58317       -1.47435
   H        4.62727        0.62922       -1.04343
   H        4.34369        2.27486       -1.67555
   H        3.78054        0.85321       -2.60557
   H        1.96353        2.66990        2.75354
   H        0.39761        3.33124        2.24865
   H        1.87897        3.76259        1.37524
   H       -1.60187        2.16554       -1.87196
   H       -0.75755        3.37859       -2.84450
   H       -1.71763        3.88905       -1.42489
   H        0.75446        0.92406        1.57383
*

