# avogadro generated ORCA input file 
# Basic Mode
# 
! RHF SP def2-SVP 

* xyz 0 1
   C       -2.94708        0.44289       -0.73613
   C       -1.87313        1.42505       -0.35252
   C        0.53183        1.61825        0.32130
   C        0.92991        2.74399       -0.62725
   C        0.38836        2.08093        1.78584
   C       -0.85748        3.53787        3.31577
   N       -0.64601        0.86061       -0.10684
   N       -0.50440        3.11114        1.98847
   H        1.35265        0.88912        0.31416
   O       -2.10042        2.62629       -0.24458
   H       -0.59699       -0.14406        0.01146
   H       -1.16833        3.29070        1.23196
   H        0.04720        3.70707        3.90568
   H       -1.45869        2.75711        3.78936
   H       -1.43673        4.46086        3.24351
   H       -3.72598        0.45069        0.03094
   H        1.87032        3.20089       -0.30114
   H        0.18588        3.54367       -0.67574
   H        1.07053        2.36058       -1.64305
   H       -2.55589       -0.57393       -0.82730
   H       -3.37252        0.73810       -1.69884
   O        0.99459        1.52547        2.70056
*
