# avogadro generated ORCA input file 
# Basic Mode
# 
! RHF OPT FREQ def2-SVP 

* xyz 0 1
   C        1.43790        2.30627        4.02135
   C        1.30782        1.40689        2.82112
   C        0.81235        1.36436        0.38183
   C       -0.52630        0.63704        0.44957
   C        1.58386        0.03679        0.18282
   C        3.83033       -0.94795        0.05843
   N        1.13795        2.07265        1.62747
   N        2.95841        0.19401        0.14607
   O        1.02743       -1.02189       -0.09960
   O        1.39691        0.18958        2.91142
   H        0.86695        3.04642        1.66927
   H        3.30792        1.02582        0.60470
   H        3.43129       -1.68494       -0.64320
   H        3.91445       -1.39837        1.05103
   H        4.81286       -0.60748       -0.27622
   H       -0.80753        0.24310       -0.53304
   H       -1.32073        1.31341        0.78270
   H       -0.49345       -0.21027        1.14187
   H        1.35862        3.36262        3.75118
   H        2.41497        2.14019        4.48355
   H        0.64542        2.06646        4.73499
   H        0.72038        2.16019       -0.36941
*
